[General]
network = NetworkStar
sim-time-limit = 200s

NetworkStar.node[{0,1,2,3,4,6,7,50,33,22,45,21,15,17,49,51}].app.interArrivalTime = exponential(1)
NetworkStar.node[{0,1,2,3,4,6,7,50,33,22,45,21,15,17,49,51}].app.packetByteSize = 125000
NetworkStar.node[{0,1,2,3,4,6,7,50,33,22,45,21,15,17,49,51}].app.destination = 5
